@<TRIPOS>MOLECULE
MGN
13 12 1 0 0
SMALL
USER_CHARGES

@<TRIPOS>ATOM
      1 CD      53.8830    34.3610    57.2850 C.3    1 MGN  0.0000
      2 HD1     53.3760    34.9626    58.0394 H      1 MGN  0.0000
      3 HD2     53.1940    33.6250    56.8700 H      1 MGN  0.0000
      4 HD3     54.2070    35.0100    56.4690 H      1 MGN  0.0000
      5 NE      55.0650    33.7050    57.8620 N.pl3  1 MGN  0.0000
      6 HE      55.9590    34.1680    57.6930 H      1 MGN  0.0000
      7 CZ      55.0750    32.6660    58.6790 C.cat  1 MGN  0.0000
      8 NH1     54.0160    31.9580    58.9320 N.pl3  1 MGN  0.0000
      9 HH11    53.2140    32.0310    58.3030 H      1 MGN  0.0000
     10 HH12    54.0900    31.1980    59.5970 H      1 MGN  0.0000
     11 NH2     56.1800    32.3020    59.2590 N.pl3  1 MGN  0.0000
     12 HH21    57.0390    32.7440    58.9510 H      1 MGN  0.0000
     13 HH22    56.1780    31.5080    59.8810 H      1 MGN  0.0000
@<TRIPOS>BOND
     1    1    2 1
     2    1    3 1
     3    1    4 1
     4    1    5 1
     5    5    6 1
     6    5    7 1
     7    7    8 2
     8    7   11 1
     9    8    9 1
    10    8   10 1
    11   11   12 1
    12   11   13 1
